REMARK  Name = temp__1R_15R_17S_18S_-17-ethyl-7-methoxy-3_13-diazapentacyclo_13.3.1.02_10.04_9.013_18_nonadeca-2_10__4_9__5_7-tetraene__ibogaine.pdb
REMARK  4 active torsions:
REMARK  status: ('A' for Active; 'I' for Inactive)
REMARK    1  A    between atoms: C_1  and  C_2
REMARK    2  A    between atoms: C_2  and  C_3
REMARK    3  A    between atoms: C_19  and  O_22
REMARK    4  A    between atoms: O_22  and  C_23
REMARK                            x       y       z     vdW  Elec       q    Type
REMARK                         _______ _______ _______ _____ _____    ______ ____
ROOT
ATOM      1  C   UNL     1       1.035   1.711  -1.854  0.00  0.00    +0.000 C 
ATOM      2  C   UNL     1       2.556   1.994  -1.922  0.00  0.00    +0.000 C 
ATOM      3  C   UNL     1       3.165   1.229  -3.114  0.00  0.00    +0.000 C 
ATOM      4  C   UNL     1       2.389   1.593  -4.394  0.00  0.00    +0.000 C 
ATOM      5  C   UNL     1       0.950   1.037  -4.300  0.00  0.00    +0.000 C 
ATOM      6  C   UNL     1       0.701   0.545  -2.847  0.00  0.00    +0.000 C 
ATOM      7  N   UNL     1       1.599  -0.562  -2.471  0.00  0.00    +0.000 NA
ATOM      8  C   UNL     1       2.993  -0.285  -2.859  0.00  0.00    +0.000 C 
ATOM      9  C   UNL     1       1.088  -1.875  -2.855  0.00  0.00    +0.000 C 
ATOM     10  C   UNL     1       1.242  -2.337  -4.304  0.00  0.00    +0.000 C 
ATOM     11  C   UNL     1       0.818  -1.392  -5.387  0.00  0.00    +0.000 A 
ATOM     12  C   UNL     1       0.697  -0.008  -5.366  0.00  0.00    +0.000 A 
ATOM     13  N   UNL     1       0.326   0.385  -6.634  0.00  0.00    +0.000 N 
ATOM     14  C   UNL     1       0.278  -0.689  -7.488  0.00  0.00    +0.000 A 
ATOM     15  C   UNL     1       0.566  -1.818  -6.733  0.00  0.00    +0.000 A 
ATOM     16  C   UNL     1       0.597  -3.071  -7.382  0.00  0.00    +0.000 A 
ATOM     17  C   UNL     1       0.353  -3.159  -8.757  0.00  0.00    +0.000 A 
ATOM     18  C   UNL     1       0.071  -2.004  -9.485  0.00  0.00    +0.000 A 
ATOM     19  C   UNL     1       0.023  -0.747  -8.863  0.00  0.00    +0.000 A 
ATOM     20  H   UNL     1       0.173   1.342  -6.921  0.00  0.00    +0.000 HD
ENDROOT
BRANCH   1  22
ATOM     21  C   UNL     1       0.741   2.561   0.561  0.00  0.00    +0.000 C 
ATOM     22  C   UNL     1       0.548   1.409  -0.420  0.00  0.00    +0.000 C 
ENDBRANCH   1  22
BRANCH  17  23
ATOM     23  O   UNL     1       0.433  -4.430  -9.261  0.00  0.00    +0.000 OA
ATOM     24  C   UNL     1       0.211  -4.583 -10.656  0.00  0.00    +0.000 C 
ENDBRANCH  17  23
TORSDOF 2
